
     RDKit          3D

 36 42  0  0  0  0  0  0  0  0999 V2000
   -2.9163    1.6853   -0.0019 C   0  0  0  0  0  0  0  0  0  0  0  0
   -2.9684    0.2867   -0.0029 C   0  0  0  0  0  0  0  0  0  0  0  0
   -1.7832   -0.4576   -0.0040 C   0  0  0  0  0  0  0  0  0  0  0  0
   -0.5461    0.1966   -0.0032 C   0  0  0  0  0  0  0  0  0  0  0  0
   -0.4940    1.5950   -0.0018 C   0  0  0  0  0  0  0  0  0  0  0  0
   -1.6790    2.3395   -0.0015 C   0  0  0  0  0  0  0  0  0  0  0  0
    0.7436    2.2492   -0.0005 C   0  0  0  0  0  0  0  0  0  0  0  0
    1.9226    1.5021    0.0001 C   0  0  0  0  0  0  0  0  0  0  0  0
    1.8707    0.1091   -0.0013 C   0  0  0  0  0  0  0  0  0  0  0  0
    0.6394   -0.5480   -0.0034 C   0  0  0  0  0  0  0  0  0  0  0  0
    0.5820   -1.9425   -0.0054 C   0  0  0  0  0  0  0  0  0  0  0  0
   -0.6503   -2.5941   -0.0066 C   0  0  0  0  0  0  0  0  0  0  0  0
   -1.8352   -1.8565   -0.0054 C   0  0  0  0  0  0  0  0  0  0  0  0
   -3.0715   -2.5041   -0.0050 C   0  0  0  0  0  0  0  0  0  0  0  0
   -4.2521   -1.7627   -0.0033 C   0  0  0  0  0  0  0  0  0  0  0  0
   -4.2058   -0.3677   -0.0026 C   0  0  0  0  0  0  0  0  0  0  0  0
   -5.3848    0.3793   -0.0013 C   0  0  0  0  0  0  0  0  0  0  0  0
   -5.3330    1.7724   -0.0005 C   0  0  0  0  0  0  0  0  0  0  0  0
   -4.1017    2.4299   -0.0008 C   0  0  0  0  0  0  0  0  0  0  0  0
   -4.0441    3.8245    0.0001 C   0  0  0  0  0  0  0  0  0  0  0  0
   -2.8116    4.4761    0.0001 C   0  0  0  0  0  0  0  0  0  0  0  0
   -1.6267    3.7384   -0.0005 C   0  0  0  0  0  0  0  0  0  0  0  0
   -0.3901    4.3857    0.0002 C   0  0  0  0  0  0  0  0  0  0  0  0
    0.7903    3.6441    0.0004 C   0  0  0  0  0  0  0  0  0  0  0  0
   -6.2589    2.3428    0.0005 H   0  0  0  0  0  0  0  0  0  0  0  0
   -6.3505   -0.1208   -0.0008 H   0  0  0  0  0  0  0  0  0  0  0  0
   -5.2090   -2.2795   -0.0024 H   0  0  0  0  0  0  0  0  0  0  0  0
   -3.1211   -3.5905   -0.0055 H   0  0  0  0  0  0  0  0  0  0  0  0
   -0.6812   -3.6812   -0.0083 H   0  0  0  0  0  0  0  0  0  0  0  0
    1.4981   -2.5285   -0.0058 H   0  0  0  0  0  0  0  0  0  0  0  0
    2.7965   -0.4616   -0.0008 H   0  0  0  0  0  0  0  0  0  0  0  0
    2.8884    2.0021    0.0018 H   0  0  0  0  0  0  0  0  0  0  0  0
    1.7475    4.1603    0.0012 H   0  0  0  0  0  0  0  0  0  0  0  0
   -0.3400    5.4721    0.0009 H   0  0  0  0  0  0  0  0  0  0  0  0
   -2.7804    5.5631    0.0009 H   0  0  0  0  0  0  0  0  0  0  0  0
   -4.9600    4.4109    0.0009 H   0  0  0  0  0  0  0  0  0  0  0  0
  1  2  1  0
  1  6  2  0
  1 19  1  0
  2  3  2  0
  2 16  1  0
  3  4  1  0
  3 13  1  0
  4  5  2  0
  4 10  1  0
  5  6  1  0
  5  7  1  0
  6 22  1  0
  7  8  2  0
  7 24  1  0
  8  9  1  0
  8 32  1  0
  9 10  2  0
  9 31  1  0
 10 11  1  0
 11 12  2  0
 11 30  1  0
 12 13  1  0
 12 29  1  0
 13 14  2  0
 14 15  1  0
 14 28  1  0
 15 16  2  0
 15 27  1  0
 16 17  1  0
 17 18  2  0
 17 26  1  0
 18 19  1  0
 18 25  1  0
 19 20  2  0
 20 21  1  0
 20 36  1  0
 21 22  2  0
 21 35  1  0
 22 23  1  0
 23 24  2  0
 23 34  1  0
 24 33  1  0
M  END

